[TITLE]
;;Project Title/Notes

[OPTIONS]
;;Option             Value
FLOW_UNITS           CMS
INFILTRATION         Horton
FLOW_ROUTING         DYNWAVE
LINK_OFFSETS         DEPTH
MIN_SLOPE            0
ALLOW_PONDING        NO
SKIP_STEADY_STATE    NO

IGNORE_RDII          YES
IGNORE_SNOWMELT      YES
IGNORE_GROUNDWATER   YES
START_DATE           01/01/2018
START_TIME           00:00:00
REPORT_START_DATE    01/01/2018
REPORT_START_TIME    00:00:00
END_DATE             01/01/2018
END_TIME             03:00:00
SWEEP_START          01/01
SWEEP_END            12/31
DRY_DAYS             14
REPORT_STEP          00:01:00
WET_STEP             00:01:00
DRY_STEP             01:00:00
ROUTING_STEP         0:00:05 

INERTIAL_DAMPING     NONE
NORMAL_FLOW_LIMITED  BOTH
FORCE_MAIN_EQUATION  H-W
VARIABLE_STEP        0.00
LENGTHENING_STEP     0
MIN_SURFAREA         1.14
MAX_TRIALS           8
HEAD_TOLERANCE       0.0015
SYS_FLOW_TOL         5
LAT_FLOW_TOL         5
MINIMUM_STEP         0.5
THREADS              1

[EVAPORATION]
;;Data Source    Parameters
;;-------------- ----------------
CONSTANT         0
DRY_ONLY         YES

[RAINGAGES]
;;Name           Format    Interval SCF      Source    
;;-------------- --------- ------ ------ ----------
default          CUMULATIVE 00:05    1.0      TIMESERIES default_rain.dat

[SUBCATCHMENTS]
;;Name           Rain Gage        Outlet           Area     %Imperv  Width    %Slope   CurbLen  SnowPack        
;;-------------- ---------------- ---------------- -------- -------- -------- -------- -------- ----------------
S_1              default          J_1              0.82155355655551 6.54669979714295 4107.76778277755 1        0                        
S_2              default          J_2              0.976514487326425 6.51166779912981 4882.57243663212 1        0                        
S_3              default          J_3              1.08405653087007 7.2978676057882 5420.28265435033 1        0                        
S_4              default          J_4              1.16122708200528 6.50718165448637 5806.13541002641 1        0                        
S_5              default          J_5              0.178961733384198 35.1705907844794 894.808666920988 1        0                        
S_6              default          J_6              0.126577115143742 61.4948101089507 632.885575718712 1        0                        
S_7              default          J_7              0.149387859463546 46.1733044699228 746.939297317731 1        0                        
S_8              default          J_8              0.156001204993797 50.4921829519227 780.006024968985 1        0                        
S_9              default          J_9              0.219265301414672 54.4133357915203 1096.32650707336 1        0                        
S_10             default          J_10             0.401382461736351 53.2951462872512 2006.91230868176 1        0                        
S_11             default          J_11             0.325877437734976 64.0169980886426 1629.38718867488 1        0                        
S_12             default          J_12             0.215317348866258 64.0003515285369 1076.58674433129 1        0                        
S_13             default          J_13             0.488933710439503 54.9996016425408 2444.66855219752 1        0                        
S_14             default          J_14             0.276581973505765 63.3474701855575 1382.90986752883 1        0                        
S_15             default          J_15             0.194114250580594 59.0589453568704 970.57125290297 1        0                        
S_16             default          J_16             0.284815252200514 52.8897180949644 1424.07626100257 1        0                        
S_17             default          J_17             0.282000042331964 41.388342061357 1410.00021165982 1        0                        
S_18             default          J_18             0.273757070676237 57.0639866897595 1368.78535338119 1        0                        
S_19             default          J_20             0.532046530365758 30.4609455949344 2660.23265182879 1        0                        
S_20             default          J_21             0.510400680433214 23.41412433168 2552.00340216607 1        0                        
S_21             default          J_23             0.180915153669566 65.3387820680662 904.57576834783 1        0                        
S_22             default          J_24             0.171358610795415 49.3397801815366 856.793053977075 1        0                        
S_23             default          J_25             0.199475479443371 49.4998058377592 997.377397216856 1        0                        
S_24             default          J_26             0.333095678468049 56.9194712849527 1665.47839234024 1        0                        
S_25             default          J_27             0.3645899417173 48.1246241629667 1822.9497085865 1        0                        
S_26             default          J_28             0.199932520766673 26.9011083650639 999.662603833363 1        0                        
S_27             default          J_29             0.239438336921856 72.6288889423756 1197.19168460928 1        0                        
S_28             default          J_30             0.217927883324539 66.9008176122492 1089.6394166227 1        0                        
S_29             default          J_31             0.225683889205754 57.1318058148883 1128.41944602877 1        0                        
S_30             default          J_32             0.241113267748058 58.2272281547153 1205.56633874029 1        0                        
S_31             default          J_33             0.127975217439234 70.2617565997786 639.876087196171 1        0                        
S_32             default          J_34             0.272395342605561 26.8026474842545 1361.97671302781 1        0                        
S_33             default          J_35             0.496833984854817 12.848707898767 2484.16992427409 1        0                        
S_34             default          J_36             0.676436944856867 12.7159243347324 3382.18472428434 1        0                        
S_35             default          J_41             0.597799475821853 17.6929028826066 2988.99737910926 1        0                        
S_36             default          J_49             0.356047939304262 38.7744309521362 1780.23969652131 1        0                        
S_37             default          J_55             0.240914968229085 64.1318138053596 1204.57484114543 1        0                        
S_38             default          J_57             0.466143865936995 56.6192717229226 2330.71932968497 1        0                        
S_39             default          J_58             0.330512565315515 67.755224194379 1652.56282657757 1        0                        
S_40             default          J_59             0.19854873547405 61.8031214846858 992.74367737025 1        0                        
S_41             default          J_60             0.33318165621534 55.3193848772853 1665.9082810767 1        0                        
S_42             default          J_61             0.372213203890063 55.758805537867 1861.06601945031 1        0                        
S_43             default          J_64             0.344965471291915 63.1930319665252 1724.82735645957 1        0                        
S_44             default          J_65             0.349974755525589 65.1841937290453 1749.87377762794 1        0                        
S_45             default          J_66             0.273009936885536 78.3975531555785 1365.04968442768 1        0                        
S_46             default          J_67             0.533416468826123 57.2080573015344 2667.08234413061 1        0                        
S_47             default          J_68             0.362764140257239 59.8763311357842 1813.8207012862 1        0                        
S_48             default          J_71             0.329586124800891 58.3254834357719 1647.93062400445 1        0                        
S_49             default          J_73             0.209295220536739 65.7985914998687 1046.47610268369 1        0                        
S_50             default          J_74             0.35756967237629 61.7984228675614 1787.84836188145 1        0                        
S_51             default          J_75             0.345069772730535 56.2740620217379 1725.34886365267 1        0                        
S_52             default          J_76             0.41765142724663 56.5267127418754 2088.25713623315 1        0                        
S_53             default          J_77             0.17385333026424 58.7516768931172 869.266651321203 1        0                        
S_54             default          J_79             0.159608052758127 45.2910230471578 798.040263790637 1        0                        
S_55             default          J_80             0.156383795311302 68.0724710874394 781.91897655651 1        0                        
S_56             default          J_82             0.18969019835256 56.5061822455 948.450991762802 1        0                        
S_57             default          J_84             0.229087369605899 61.7334648315172 1145.43684802949 1        0                        
S_58             default          J_86             0.420970312384609 53.0793794031451 2104.85156192305 1        0                        
S_59             default          J_87             0.379632146958262 26.9328528930321 1898.16073479131 1        0                        
S_60             default          J_88             0.236353872884065 27.6624638877078 1181.76936442032 1        0                        
S_61             default          J_89             0.161780474819615 47.7588394969892 808.902374098077 1        0                        
S_62             default          J_90             0.26416268955227 59.1762354881767 1320.81344776135 1        0                        
S_63             default          J_91             0.407503848784417 60.0904327270367 2037.51924392208 1        0                        
S_64             default          J_95             0.152714463498443 60.2154922498571 763.572317492217 1        0                        
S_65             default          J_97             0.317012849516422 66.1066413071733 1585.06424758211 1        0                        
S_66             default          J_100            0.39472761810571 58.875363929687 1973.63809052855 1        0                        
S_67             default          J_101            0.438094432156533 61.3210341865451 2190.47216078267 1        0                        
S_68             default          J_102            0.463207413132489 58.3334147258944 2316.03706566244 1        0                        
S_69             default          J_103            0.292732655064389 59.666573504661 1463.66327532195 1        0                        
S_70             default          J_105            0.274490702122706 55.9751524157519 1372.45351061353 1        0                        
S_71             default          J_107            0.400836144197732 61.0876352132798 2004.18072098866 1        0                        
S_72             default          J_108            0.403341045980901 60.327276466558 2016.7052299045 1        0                        
S_73             default          J_109            0.370047271300852 58.8797568187356 1850.23635650426 1        0                        
S_74             default          J_110            0.453231949628145 61.1153383170349 2266.15974814072 1        0                        
S_75             default          J_111            0.269558085869253 42.7784392907917 1347.79042934626 1        0                        
S_76             default          J_112            0.475220289129764 43.1563949136023 2376.10144564882 1        0                        
S_77             default          J_113            0.384699688222259 50.4524157781082 1923.4984411113 1        0                        
S_78             default          J_114            0.276130937132332 61.1425025259642 1380.65468566166 1        0                        
S_79             default          J_115            0.155782484009117 62.8556021368426 778.912420045584 1        0                        
S_80             default          J_116            0.242353533158451 55.3472286229954 1211.76766579226 1        0                        
S_81             default          J_117            0.323072039346397 58.2508716787661 1615.36019673198 1        0                        
S_82             default          J_118            0.366678698381269 59.6397179415359 1833.39349190635 1        0                        
S_83             default          J_119            0.474546897368878 59.5687328820498 2372.73448684439 1        0                        
S_84             default          J_120            0.388630784621462 60.3884099293449 1943.15392310731 1        0                        
S_85             default          J_123            0.284532568124309 58.5270491289104 1422.66284062155 1        0                        
S_86             default          J_126            0.355350449761748 62.1978245049925 1776.75224880874 1        0                        
S_87             default          J_127            0.30434587906152 64.9894364045006 1521.7293953076 1        0                        
S_88             default          J_128            0.276363764516264 62.0242387847643 1381.81882258132 1        0                        
S_89             default          J_130            0.53764013310913 6.87850887637983 2688.20066554565 1        0                        
S_90             default          J_131            0.263804393491149 8.04782181860365 1319.02196745574 1        0                        
S_91             default          J_132            0.329799067782611 13.6409942038555 1648.99533891305 1        0                        
S_92             default          J_133            0.540681940687448 4.95688665057854 2703.40970343724 1        0                        
S_93             default          J_134            0.710121806386113 21.195386251262 3550.60903193057 1        0                        
S_94             default          J_136            0.429101791496575 53.381217277257 2145.50895748287 1        0                        
S_95             default          J_137            0.396648220652528 48.2799884283579 1983.24110326264 1        0                        
S_96             default          J_138            0.520906732854247 43.0830552205783 2604.53366427124 1        0                        
S_97             default          J_139            0.551974899233965 42.5210951931974 2759.87449616982 1        0                        
S_98             default          J_140            0.422475269356603 43.5494743099678 2112.37634678301 1        0                        
S_99             default          J_141            0.443206933413283 43.7578162971722 2216.03466706641 1        0                        
S_100            default          J_142            0.405875094135292 46.2723393028291 2029.37547067646 1        0                        
S_101            default          J_144            0.434576094404701 46.2676729997947 2172.88047202351 1        0                        
S_102            default          J_146            0.397447781882988 47.4027759630398 1987.23890941494 1        0                        
S_103            default          J_148            0.297675034960546 44.8792427400867 1488.37517480273 1        0                        
S_104            default          J_149            0.310729665252892 41.5188619653172 1553.64832626446 1        0                        
S_105            default          J_151            0.279763143951632 47.6061014098724 1398.81571975816 1        0                        
S_106            default          J_153            0.161637316432595 30.8672599593112 808.186582162976 1        0                        
S_107            default          J_154            0.08204694801718 33.4364778482871 410.2347400859 1        0                        
S_108            default          J_155            0.168773255249485 29.4643194655783 843.866276247427 1        0                        
S_109            default          J_156            0.529325565552711 29.3807719551852 2646.62782776356 1        0                        
S_110            default          J_157            0.449574102474749 9.68559938301804 2247.87051237375 1        0                        
S_111            default          J_158            0.24706632171683 21.7521522061429 1235.33160858415 1        0                        
S_112            default          J_161            0.3457212832205 56.8114677278039 1728.6064161025 1        0                        
S_113            default          J_162            0.368765708720312 63.7146180507698 1843.82854360156 1        0                        
S_114            default          J_165            0.371377390662581 37.7837526823948 1856.8869533129 1        0                        
S_115            default          J_166            0.282775334214978 44.0032777795237 1413.87667107489 1        0                        
S_116            default          J_167            0.361150474724546 45.3690466214687 1805.75237362273 1        0                        
S_117            default          J_168            0.381948496644199 47.2437563088504 1909.74248322099 1        0                        
S_118            default          J_169            0.38191418316476 38.5339518792288 1909.5709158238 1        0                        
S_119            default          J_170            0.275870356806368 49.9842174403663 1379.35178403184 1        0                        
S_120            default          J_172            0.710482719610818 3.51947863336257 3552.41359805409 1        0                        
S_121            default          J_173            0.699066962914169 4.27993729664636 3495.33481457084 1        0                        
S_122            default          J_174            0.855864413587749 15.2617062238089 4279.32206793875 1        0                        
S_123            default          J_176            0.230175740429386 54.573402282652 1150.87870214693 1        0                        
S_124            default          J_177            0.254488783368468 59.6114811781753 1272.44391684234 1        0                        
S_125            default          J_178            0.294579581032693 59.7393280543809 1472.89790516347 1        0                        
S_126            default          J_179            0.359691408991814 49.0631000811315 1798.45704495907 1        0                        
S_127            default          J_180            0.287621158232167 47.3482976427249 1438.10579116084 1        0                        
S_128            default          J_182            0.31458257111311 52.6087752884667 1572.91285556555 1        0                        
S_129            default          J_185            0.224450548706949 63.5471467379163 1122.25274353474 1        0                        
S_130            default          J_186            0.193541508287564 55.1278394757352 967.70754143782 1        0                        
S_131            default          J_188            0.258146239689738 54.7581341243303 1290.73119844869 1        0                        
S_132            default          J_190            0.288034611165896 63.2465745052054 1440.17305582948 1        0                        
S_133            default          J_193            0.32501928941384 54.8893087857944 1625.0964470692 1        0                        
S_134            default          J_194            0.20593515291214 46.0240325300444 1029.6757645607 1        0                        
S_135            default          J_197            1.10527659028471 20.665522070162 5526.38295142353 1        0                        
S_136            default          J_198            1.32189544601738 30.2481989575016 6609.47723008692 1        0                        
S_137            default          J_199            1.1129122415062 43.199150791803 5564.56120753102 1        0                        
S_138            default          J_200            0.45854038620451 55.0020939964268 2292.70193102255 1        0                        
S_139            default          J_201            0.488705993788194 58.3032404483148 2443.52996894097 1        0                        
S_140            default          J_202            0.53706130681131 48.9402344134837 2685.30653405655 1        0                        
S_141            default          J_205            0.403031169732078 63.2323246669606 2015.15584866039 1        0                        
S_142            default          J_206            0.408189734654129 68.2258399037246 2040.94867327064 1        0                        
S_143            default          J_209            0.348054717703909 69.9270439966543 1740.27358851954 1        0                        
S_144            default          J_210            0.393177550027333 61.7577781860389 1965.88775013667 1        0                        
S_145            default          J_212            0.261418204514682 63.8135602922076 1307.09102257341 1        0                        
S_146            default          J_213            0.539282112923265 50.3084426910673 2696.41056461632 1        0                        
S_147            default          J_215            0.331742723734677 49.0434114883386 1658.71361867338 1        0                        
S_148            default          J_216            0.352773935443163 46.8824865671113 1763.86967721581 1        0                        
S_149            default          J_217            0.204026738891006 44.5482728148032 1020.13369445503 1        0                        
S_150            default          J_221            0.419349155773595 73.7930245787783 2096.74577886797 1        0                        
S_151            default          J_222            0.445576017484069 64.5824983361362 2227.88008742034 1        0                        
S_152            default          J_223            0.497306805336475 66.3109267497543 2486.53402668238 1        0                        
S_153            default          J_225            0.558547877685912 5.93389632543061 2792.73938842956 1        0                        
S_154            default          J_226            0.691168748008087 11.6251621886316 3455.84374004044 1        0                        
S_155            default          J_227            0.989291583191138 11.2860179361531 4946.45791595569 1        0                        
S_156            default          J_229            0.27871370493602 4.31942480304891 1393.5685246801 1        0                        
S_157            default          J_232            0.327432006336283 56.3200142869179 1637.16003168141 1        0                        
S_158            default          J_233            0.232156871193089 61.5604892851018 1160.78435596544 1        0                        
S_159            default          J_234            0.268784755027853 55.0834145686672 1343.92377513926 1        0                        
S_160            default          J_236            0.276284769207053 50.2201684116694 1381.42384603526 1        0                        
S_161            default          J_239            0.286881149335206 57.7345091611968 1434.40574667603 1        0                        
S_162            default          J_243            0.127653597963229 59.665970194061 638.267989816144 1        0                        
S_163            default          J_246            0.289369855420291 63.0002103260943 1446.84927710146 1        0                        
S_164            default          J_249            0.295667861392349 22.0978774857803 1478.33930696175 1        0                        

[SUBAREAS]
;;Subcatchment   N-Imperv   N-Perv     S-Imperv   S-Perv     PctZero    RouteTo    PctRouted 
;;-------------- ---------- ---------- ---------- ---------- ---------- ---------- ----------
S_1              0.01       0.1        0.05       0.05       25         OUTLET    
S_2              0.01       0.1        0.05       0.05       25         OUTLET    
S_3              0.01       0.1        0.05       0.05       25         OUTLET    
S_4              0.01       0.1        0.05       0.05       25         OUTLET    
S_5              0.01       0.1        0.05       0.05       25         OUTLET    
S_6              0.01       0.1        0.05       0.05       25         OUTLET    
S_7              0.01       0.1        0.05       0.05       25         OUTLET    
S_8              0.01       0.1        0.05       0.05       25         OUTLET    
S_9              0.01       0.1        0.05       0.05       25         OUTLET    
S_10             0.01       0.1        0.05       0.05       25         OUTLET    
S_11             0.01       0.1        0.05       0.05       25         OUTLET    
S_12             0.01       0.1        0.05       0.05       25         OUTLET    
S_13             0.01       0.1        0.05       0.05       25         OUTLET    
S_14             0.01       0.1        0.05       0.05       25         OUTLET    
S_15             0.01       0.1        0.05       0.05       25         OUTLET    
S_16             0.01       0.1        0.05       0.05       25         OUTLET    
S_17             0.01       0.1        0.05       0.05       25         OUTLET    
S_18             0.01       0.1        0.05       0.05       25         OUTLET    
S_19             0.01       0.1        0.05       0.05       25         OUTLET    
S_20             0.01       0.1        0.05       0.05       25         OUTLET    
S_21             0.01       0.1        0.05       0.05       25         OUTLET    
S_22             0.01       0.1        0.05       0.05       25         OUTLET    
S_23             0.01       0.1        0.05       0.05       25         OUTLET    
S_24             0.01       0.1        0.05       0.05       25         OUTLET    
S_25             0.01       0.1        0.05       0.05       25         OUTLET    
S_26             0.01       0.1        0.05       0.05       25         OUTLET    
S_27             0.01       0.1        0.05       0.05       25         OUTLET    
S_28             0.01       0.1        0.05       0.05       25         OUTLET    
S_29             0.01       0.1        0.05       0.05       25         OUTLET    
S_30             0.01       0.1        0.05       0.05       25         OUTLET    
S_31             0.01       0.1        0.05       0.05       25         OUTLET    
S_32             0.01       0.1        0.05       0.05       25         OUTLET    
S_33             0.01       0.1        0.05       0.05       25         OUTLET    
S_34             0.01       0.1        0.05       0.05       25         OUTLET    
S_35             0.01       0.1        0.05       0.05       25         OUTLET    
S_36             0.01       0.1        0.05       0.05       25         OUTLET    
S_37             0.01       0.1        0.05       0.05       25         OUTLET    
S_38             0.01       0.1        0.05       0.05       25         OUTLET    
S_39             0.01       0.1        0.05       0.05       25         OUTLET    
S_40             0.01       0.1        0.05       0.05       25         OUTLET    
S_41             0.01       0.1        0.05       0.05       25         OUTLET    
S_42             0.01       0.1        0.05       0.05       25         OUTLET    
S_43             0.01       0.1        0.05       0.05       25         OUTLET    
S_44             0.01       0.1        0.05       0.05       25         OUTLET    
S_45             0.01       0.1        0.05       0.05       25         OUTLET    
S_46             0.01       0.1        0.05       0.05       25         OUTLET    
S_47             0.01       0.1        0.05       0.05       25         OUTLET    
S_48             0.01       0.1        0.05       0.05       25         OUTLET    
S_49             0.01       0.1        0.05       0.05       25         OUTLET    
S_50             0.01       0.1        0.05       0.05       25         OUTLET    
S_51             0.01       0.1        0.05       0.05       25         OUTLET    
S_52             0.01       0.1        0.05       0.05       25         OUTLET    
S_53             0.01       0.1        0.05       0.05       25         OUTLET    
S_54             0.01       0.1        0.05       0.05       25         OUTLET    
S_55             0.01       0.1        0.05       0.05       25         OUTLET    
S_56             0.01       0.1        0.05       0.05       25         OUTLET    
S_57             0.01       0.1        0.05       0.05       25         OUTLET    
S_58             0.01       0.1        0.05       0.05       25         OUTLET    
S_59             0.01       0.1        0.05       0.05       25         OUTLET    
S_60             0.01       0.1        0.05       0.05       25         OUTLET    
S_61             0.01       0.1        0.05       0.05       25         OUTLET    
S_62             0.01       0.1        0.05       0.05       25         OUTLET    
S_63             0.01       0.1        0.05       0.05       25         OUTLET    
S_64             0.01       0.1        0.05       0.05       25         OUTLET    
S_65             0.01       0.1        0.05       0.05       25         OUTLET    
S_66             0.01       0.1        0.05       0.05       25         OUTLET    
S_67             0.01       0.1        0.05       0.05       25         OUTLET    
S_68             0.01       0.1        0.05       0.05       25         OUTLET    