[TITLE]
;;Project Title/Notes
null

[OPTIONS]
;;Option             Value
FLOW_UNITS           CMS
INFILTRATION         Horton
FLOW_ROUTING         DYNWAVE
LINK_OFFSETS         DEPTH
MIN_SLOPE            0
ALLOW_PONDING        NO
SKIP_STEADY_STATE    NO

IGNORE_RDII          YES
IGNORE_SNOWMELT      YES
IGNORE_GROUNDWATER   YES
START_DATE           01/01/2018
START_TIME           00:00:00
REPORT_START_DATE    01/01/2018
REPORT_START_TIME    02:00:50
END_DATE             01/01/2018
END_TIME             04:00:00
SWEEP_START          01/01
SWEEP_END            12/31
DRY_DAYS             14
REPORT_STEP          00:01:00
WET_STEP             00:05:00
DRY_STEP             01:00:00
ROUTING_STEP         0:00:01 

INERTIAL_DAMPING     NONE
NORMAL_FLOW_LIMITED  BOTH
FORCE_MAIN_EQUATION  H-W
VARIABLE_STEP        0.00
LENGTHENING_STEP     1
MIN_SURFAREA         1.14
MAX_TRIALS           8
HEAD_TOLERANCE       0.0015
SYS_FLOW_TOL         5
LAT_FLOW_TOL         5
MINIMUM_STEP         0.5
THREADS              1

[EVAPORATION]
;;Data Source    Parameters
;;-------------- ----------------
CONSTANT         0
DRY_ONLY         YES

[JUNCTIONS]
;;Name           Elevation  MaxDepth   InitDepth  SurDepth   Aponded   
;;-------------- ---------- ---------- ---------- ---------- ----------
MW-5-A           100.05     1.0499954  0          0          0         
MW-5-0           100.0      1.0        0          0          0         
MW-5-1           99.95      1.050003   0          0          0         
MW-5-2           99.9       1.0999985  0          0          0         
MW-5-3           99.85      1.1500015  0          0          0         
MW-5-4           99.8       1.199997   0          0          0         
MW-5-5           99.75      1.25       0          0          0         
MW-5-6           99.7       1.300003   0          0          0         
MW-5-7           99.65      1.3499985  0          0          0         
MW-5-8           99.6       1.4000015  0          0          0         
MW-5-9           99.55      1.449997   0          0          0         
MW-5-10          99.5       1.5        0          0          0         
MW-5-11          99.45      1.550003   0          0          0         
MW-5-12          99.4       1.5999985  0          0          0         
MW-5-13          99.35      1.6500015  0          0          0         
MW-5-14          99.3       1.699997   0          0          0         
MW-5-15          99.25      1.75       0          0          0         
MW-5-16          99.2       1.800003   0          0          0         
MW-5-17          99.15      1.8499985  0          0          0         
MW-5-18          99.1       1.9000015  0          0          0         
MW-5-19          99.05      1.949997   0          0          0         
MW-5-20          99.0       2.0        0          0          0         
MW-5-21          98.95      2.050003   0          0          0         
MW-5-22          98.9       2.0999985  0          0          0         
MW-5-23          98.85      2.1500015  0          0          0         
MW-5-24          98.8       2.199997   0          0          0         
MW-5-25          98.75      2.25       0          0          0         
MW-5-26          98.7       2.300003   0          0          0         
MW-5-27          98.65      2.3499985  0          0          0         
MW-5-28          98.6       2.4000015  0          0          0         
MW-5-29          98.55      2.449997   0          0          0         
MW-5-30          98.5       2.5        0          0          0         
MW-5-31          98.45      2.550003   0          0          0         
MW-5-32          98.4       2.5999985  0          0          0         
MW-5-33          98.35      2.6500015  0          0          0         
MW-5-34          98.3       2.699997   0          0          0         
MW-5-35          98.25      2.75       0          0          0         
MW-5-36          98.2       2.800003   0          0          0         
MW-5-37          98.15      2.8499985  0          0          0         
MW-5-38          98.1       2.9000015  0          0          0         
MW-5-39          98.05      2.949997   0          0          0         
MW-5-40          98.0       3.0        0          0          0         
MW-5-41          97.95      3.050003   0          0          0         
MW-5-42          97.9       3.0999985  0          0          0         
MW-5-43          97.85      3.1500015  0          0          0         
MW-5-44          97.8       3.199997   0          0          0         
MW-5-45          97.75      3.25       0          0          0         
MW-5-46          97.7       3.300003   0          0          0         
MW-5-47          97.65      3.3499985  0          0          0         
MW-5-48          97.6       3.4000015  0          0          0         
MW-5-49          97.55      3.449997   0          0          0         
MW-5-50          97.5       3.5        0          0          0         
MW-5-51          97.45      3.550003   0          0          0         
MW-5-52          97.4       3.5999985  0          0          0         
MW-5-53          97.35      3.6500015  0          0          0         
MW-5-54          97.3       3.699997   0          0          0         
MW-5-55          97.25      3.75       0          0          0         
MW-5-56          97.2       3.800003   0          0          0         
MW-5-57          97.15      3.8499985  0          0          0         
MW-5-58          97.1       3.9000015  0          0          0         
MW-5-59          97.05      3.949997   0          0          0         
MW-5-60          97.0       4.0        0          0          0         
MW-5-61          96.95      4.050003   0          0          0         
MW-5-62          96.9       4.0999985  0          0          0         
MW-5-63          96.85      4.1500015  0          0          0         
MW-5-64          96.8       4.199997   0          0          0         
MW-5-65          96.75      4.25       0          0          0         
MW-5-66          96.7       4.300003   0          0          0         
MW-5-67          96.65      4.3499985  0          0          0         
MW-5-68          96.6       4.4000015  0          0          0         
MW-5-69          96.55      4.449997   0          0          0         
MW-5-70          96.5       4.5        0          0          0         
MW-5-71          96.45      4.550003   0          0          0         
MW-5-72          96.4       4.5999985  0          0          0         
MW-5-73          96.35      4.6500015  0          0          0         
MW-5-74          96.3       4.699997   0          0          0         
MW-5-75          96.25      4.75       0          0          0         
MW-5-76          96.2       4.800003   0          0          0         
MW-5-77          96.15      4.8499985  0          0          0         
MW-5-78          96.1       4.9000015  0          0          0         
MW-5-79          96.05      4.949997   0          0          0         
MW-5-80          96.0       5.0        0          0          0         
MW-5-81          95.95      5.050003   0          0          0         
MW-5-82          95.9       5.0999985  0          0          0         
MW-5-83          95.85      5.1500015  0          0          0         
MW-5-84          95.8       5.199997   0          0          0         
MW-5-85          95.75      5.25       0          0          0         
MW-5-86          95.7       5.300003   0          0          0         
MW-5-87          95.65      5.3499985  0          0          0         
MW-5-88          95.6       5.4000015  0          0          0         
MW-5-89          95.55      5.449997   0          0          0         
MW-5-90          95.5       5.5        0          0          0         
MW-5-91          95.45      5.550003   0          0          0         
MW-5-92          95.4       5.5999985  0          0          0         
MW-5-93          95.35      5.6500015  0          0          0         
MW-5-94          95.3       5.699997   0          0          0         
MW-5-95          95.25      5.75       0          0          0         
MW-5-96          95.2       5.800003   0          0          0         
MW-5-97          95.15      5.8499985  0          0          0         
MW-5-98          95.1       5.9000015  0          0          0         
MW-5-99          95.05      5.949997   0          0          0         
MW-5-100         95.0       6.0        0          0          0         
MW-5-101         94.95      6.050003   0          0          0         
MW-5-102         94.9       6.0999985  0          0          0         
MW-5-103         94.85      6.1500015  0          0          0         
MW-5-104         94.8       6.199997   0          0          0         
MW-5-105         94.75      6.25       0          0          0         
MW-5-106         94.7       6.300003   0          0          0         
MW-5-107         94.65      6.3499985  0          0          0         
MW-5-108         94.6       6.4000015  0          0          0         
MW-5-109         94.55      6.449997   0          0          0         
MW-5-110         94.5       6.5        0          0          0         
MW-5-111         94.45      6.550003   0          0          0         
MW-5-112         94.4       6.5999985  0          0          0         
MW-5-113         94.35      6.6500015  0          0          0         
MW-5-114         94.3       6.699997   0          0          0         
MW-5-115         94.25      6.75       0          0          0         
MW-5-116         94.2       6.800003   0          0          0         
MW-5-117         94.15      6.8499985  0          0          0         
MW-5-118         94.1       6.9000015  0          0          0         
MW-5-119         94.05      6.949997   0          0          0         
MW-5-120         94.0       7.0        0          0          0         
MW-5-121         93.95      7.050003   0          0          0         
MW-5-122         93.9       7.0999985  0          0          0         
MW-5-123         93.85      7.1500015  0          0          0         
MW-5-124         93.8       7.199997   0          0          0         
MW-5-125         93.75      7.25       0          0          0         
MW-5-126         93.7       7.300003   0          0          0         
MW-5-127         93.65      7.3499985  0          0          0         
MW-5-128         93.6       7.4000015  0          0          0         
MW-5-129         93.55      7.449997   0          0          0         
MW-5-130         93.5       7.5        0          0          0         
MW-5-131         93.45      7.550003   0          0          0         
MW-5-132         93.4       7.5999985  0          0          0         
MW-5-133         93.35      7.6500015  0          0          0         
MW-5-134         93.3       7.699997   0          0          0         
MW-5-135         93.25      7.75       0          0          0         
MW-5-136         93.2       7.800003   0          0          0         
MW-5-137         93.15      7.8499985  0          0          0         
MW-5-138         93.1       7.9000015  0          0          0         
MW-5-139         93.05      7.949997   0          0          0         
MW-5-140         93.0       8.0        0          0          0         
MW-5-141         92.95      8.050003   0          0          0         
MW-5-142         92.9       8.099998   0          0          0         
MW-5-143         92.85      8.150002   0          0          0         
MW-5-144         92.8       8.199997   0          0          0         
MW-5-145         92.75      8.25       0          0          0         
MW-5-146         92.7       8.300003   0          0          0         
MW-5-147         92.65      8.349998   0          0          0         
MW-5-148         92.6       8.400002   0          0          0         
MW-5-149         92.55      8.449997   0          0          0         
MW-5-150         92.5       8.5        0          0          0         
MW-5-151         92.45      8.550003   0          0          0         
MW-5-152         92.4       8.599998   0          0          0         
MW-5-153         92.35      8.650002   0          0          0         
MW-5-154         92.3       8.699997   0          0          0         
MW-5-155         92.25      8.75       0          0          0         
MW-5-156         92.2       8.800003   0          0          0         
MW-5-157         92.15      8.849998   0          0          0         
MW-5-158         92.1       8.900002   0          0          0         
MW-5-159         92.05      8.949997   0          0          0         
MW-5-160         92.0       9.0        0          0          0         
MW-5-161         91.95      9.050003   0          0          0         
MW-5-162         91.9       9.099998   0          0          0         
MW-5-163         91.85      9.150002   0          0          0         
MW-5-164         91.8       9.199997   0          0          0         
MW-5-165         91.75      9.25       0          0          0         
MW-5-166         91.7       9.300003   0          0          0         
MW-5-167         91.65      9.349998   0          0          0         
MW-5-168         91.6       9.400002   0          0          0         
MW-5-169         91.55      9.449997   0          0          0         
MW-5-170         91.5       9.5        0          0          0         
MW-5-171         91.45      9.550003   0          0          0         
MW-5-172         91.4       9.599998   0          0          0         
MW-5-173         91.35      9.650002   0          0          0         
MW-5-174         91.3       9.699997   0          0          0         
MW-5-175         91.25      9.75       0          0          0         
MW-5-176         91.2       9.800003   0          0          0         
MW-5-177         91.15      9.849998   0          0          0         
MW-5-178         91.1       9.900002   0          0          0         
MW-5-179         91.05      9.949997   0          0          0         
MW-5-180         91.0       10.0       0          0          0         
MW-5-181         90.95      10.050003  0          0          0         
MW-5-182         90.9       10.099998  0          0          0         
MW-5-183         90.85      10.150002  0          0          0         
MW-5-184         90.8       10.199997  0          0          0         
MW-5-185         90.75      10.25      0          0          0         
MW-5-186         90.7       10.300003  0          0          0         
MW-5-187         90.65      10.349998  0          0          0         
MW-5-188         90.6       10.400002  0          0          0         
MW-5-189         90.55      10.449997  0          0          0         
MW-5-190         90.5       10.5       0          0          0         
MW-5-191         90.45      10.550003  0          0          0         
MW-5-192         90.4       10.599998  0          0          0         
MW-5-193         90.35      10.650002  0          0          0         
MW-5-194         90.3       10.699997  0          0          0         
MW-5-195         90.25      10.75      0          0          0         
MW-5-196         90.2       10.800003  0          0          0         
MW-5-197         90.15      10.849998  0          0          0         
MW-5-198         90.1       10.900002  0          0          0         
MW-5-199         90.05      10.949997  0          0          0         
MW-5-200         90.0       11.0       0          0          0         
MW-10-A          100.05     1.0499954  0          0          0         
MW-10-0          100.0      1.0        0          0          0         
MW-10-1          99.9       1.0999985  0          0          0         
MW-10-2          99.8       1.199997   0          0          0         
MW-10-3          99.7       1.300003   0          0          0         
MW-10-4          99.6       1.4000015  0          0          0         
MW-10-5          99.5       1.5        0          0          0         
MW-10-6          99.4       1.5999985  0          0          0         
MW-10-7          99.3       1.699997   0          0          0         
MW-10-8          99.2       1.800003   0          0          0         
MW-10-9          99.1       1.9000015  0          0          0         
MW-10-10         99.0       2.0        0          0          0         
MW-10-11         98.9       2.0999985  0          0          0         
MW-10-12         98.8       2.199997   0          0          0         
MW-10-13         98.7       2.300003   0          0          0         
MW-10-14         98.6       2.4000015  0          0          0         
MW-10-15         98.5       2.5        0          0          0         
MW-10-16         98.4       2.5999985  0          0          0         
MW-10-17         98.3       2.699997   0          0          0         
MW-10-18         98.2       2.800003   0          0          0         
MW-10-19         98.1       2.9000015  0          0          0         
MW-10-20         98.0       3.0        0          0          0         
MW-10-21         97.9       3.0999985  0          0          0         
MW-10-22         97.8       3.199997   0          0          0         
MW-10-23         97.7       3.300003   0          0          0         
MW-10-24         97.6       3.4000015  0          0          0         
MW-10-25         97.5       3.5        0          0          0         
MW-10-26         97.4       3.5999985  0          0          0         
MW-10-27         97.3       3.699997   0          0          0         
MW-10-28         97.2       3.800003   0          0          0         
MW-10-29         97.1       3.9000015  0          0          0         
MW-10-30         97.0       4.0        0          0          0         
MW-10-31         96.9       4.0999985  0          0          0         
MW-10-32         96.8       4.199997   0          0          0         
MW-10-33         96.7       4.300003   0          0          0         
MW-10-34         96.6       4.4000015  0          0          0         
MW-10-35         96.5       4.5        0          0          0         
MW-10-36         96.4       4.5999985  0          0          0         
MW-10-37         96.3       4.699997   0          0          0         
MW-10-38         96.2       4.800003   0          0          0         
MW-10-39         96.1       4.9000015  0          0          0         
MW-10-40         96.0       5.0        0          0          0         
MW-10-41         95.9       5.0999985  0          0          0         
MW-10-42         95.8       5.199997   0          0          0         
MW-10-43         95.7       5.300003   0          0          0         
MW-10-44         95.6       5.4000015  0          0          0         
MW-10-45         95.5       5.5        0          0          0         
MW-10-46         95.4       5.5999985  0          0          0         
MW-10-47         95.3       5.699997   0          0          0         
MW-10-48         95.2       5.800003   0          0          0         
MW-10-49         95.1       5.9000015  0          0          0         
MW-10-50         95.0       6.0        0          0          0         
MW-10-51         94.9       6.0999985  0          0          0         
MW-10-52         94.8       6.199997   0          0          0         
MW-10-53         94.7       6.300003   0          0          0         
MW-10-54         94.6       6.4000015  0          0          0         
MW-10-55         94.5       6.5        0          0          0         
MW-10-56         94.4       6.5999985  0          0          0         
MW-10-57         94.3       6.699997   0          0          0         
MW-10-58         94.2       6.800003   0          0          0         
MW-10-59         94.1       6.9000015  0          0          0         
MW-10-60         94.0       7.0        0          0          0         
MW-10-61         93.9       7.0999985  0          0          0         
MW-10-62         93.8       7.199997   0          0          0         
MW-10-63         93.7       7.300003   0          0          0         
MW-10-64         93.6       7.4000015  0          0          0         
MW-10-65         93.5       7.5        0          0          0         
MW-10-66         93.4       7.5999985  0          0          0         
MW-10-67         93.3       7.699997   0          0          0         
MW-10-68         93.2       7.800003   0          0          0         
MW-10-69         93.1       7.9000015  0          0          0         
MW-10-70         93.0       8.0        0          0          0         
MW-10-71         92.9       8.099998   0          0          0         
MW-10-72         92.8       8.199997   0          0          0         
MW-10-73         92.7       8.300003   0          0          0         
MW-10-74         92.6       8.400002   0          0          0         
MW-10-75         92.5       8.5        0          0          0         
MW-10-76         92.4       8.599998   0          0          0         
MW-10-77         92.3       8.699997   0          0          0         
MW-10-78         92.2       8.800003   0          0          0         
MW-10-79         92.1       8.900002   0          0          0         
MW-10-80         92.0       9.0        0          0          0         
MW-10-81         91.9       9.099998   0          0          0         
MW-10-82         91.8       9.199997   0          0          0         
MW-10-83         91.7       9.300003   0          0          0         
MW-10-84         91.6       9.400002   0          0          0         
MW-10-85         91.5       9.5        0          0          0         
MW-10-86         91.4       9.599998   0          0          0         
MW-10-87         91.3       9.699997   0          0          0         
MW-10-88         91.2       9.800003   0          0          0         
MW-10-89         91.1       9.900002   0          0          0         
MW-10-90         91.0       10.0       0          0          0         
MW-10-91         90.9       10.099998  0          0          0         
MW-10-92         90.8       10.199997  0          0          0         
MW-10-93         90.7       10.300003  0          0          0         
MW-10-94         90.6       10.400002  0          0          0         
MW-10-95         90.5       10.5       0          0          0         
MW-10-96         90.4       10.599998  0          0          0         
MW-10-97         90.3       10.699997  0          0          0         
MW-10-98         90.2       10.800003  0          0          0         
MW-10-99         90.1       10.900002  0          0          0         
MW-10-100        90.0       11.0       0          0          0         
MW-20-A          100.05     1.0499954  0          0          0         
MW-20-0          100.0      1.0        0          0          0         
MW-20-1          99.8       1.199997   0          0          0         
MW-20-2          99.6       1.4000015  0          0          0         
MW-20-3          99.4       1.5999985  0          0          0         
MW-20-4          99.2       1.800003   0          0          0         
MW-20-5          99.0       2.0        0          0          0         
MW-20-6          98.8       2.199997   0          0          0         
MW-20-7          98.6       2.4000015  0          0          0         
MW-20-8          98.4       2.5999985  0          0          0         
MW-20-9          98.2       2.800003   0          0          0         
MW-20-10         98.0       3.0        0          0          0         
MW-20-11         97.8       3.199997   0          0          0         
MW-20-12         97.6       3.4000015  0          0          0         
MW-20-13         97.4       3.5999985  0          0          0         
MW-20-14         97.2       3.800003   0          0          0         
MW-20-15         97.0       4.0        0          0          0         
MW-20-16         96.8       4.199997   0          0          0         
MW-20-17         96.6       4.4000015  0          0          0         
MW-20-18         96.4       4.5999985  0          0          0         
MW-20-19         96.2       4.800003   0          0          0         
MW-20-20         96.0       5.0        0          0          0         
MW-20-21         95.8       5.199997   0          0          0         
MW-20-22         95.6       5.4000015  0          0          0         
MW-20-23         95.4       5.5999985  0          0          0         
MW-20-24         95.2       5.800003   0          0          0         
MW-20-25         95.0       6.0        0          0          0         
MW-20-26         94.8       6.199997   0          0          0         
MW-20-27         94.6       6.4000015  0          0          0         
MW-20-28         94.4       6.5999985  0          0          0         
MW-20-29         94.2       6.800003   0          0          0         
MW-20-30         94.0       7.0        0          0          0         
MW-20-31         93.8       7.199997   0          0          0         
MW-20-32         93.6       7.4000015  0          0          0         
MW-20-33         93.4       7.5999985  0          0          0         
MW-20-34         93.2       7.800003   0          0          0         
MW-20-35         93.0       8.0        0          0          0         
MW-20-36         92.8       8.199997   0          0          0         
MW-20-37         92.6       8.400002   0          0          0         
MW-20-38         92.4       8.599998   0          0          0         
MW-20-39         92.2       8.800003   0          0          0         
MW-20-40         92.0       9.0        0          0          0         
MW-20-41         91.8       9.199997   0          0          0         
MW-20-42         91.6       9.400002   0          0          0         
MW-20-43         91.4       9.599998   0          0          0         
MW-20-44         91.2       9.800003   0          0          0         
MW-20-45         91.0       10.0       0          0          0         
MW-20-46         90.8       10.199997  0          0          0         
MW-20-47         90.6       10.400002  0          0          0         
MW-20-48         90.4       10.599998  0          0          0         
MW-20-49         90.2       10.800003  0          0          0         
MW-20-50         90.0       11.0       0          0          0         
MW-50-A          100.05     1.0499954  0          0          0         
MW-50-0          100.0      1.0        0          0          0         
MW-50-1          99.5       1.5        0          0          0         
MW-50-2          99.0       2.0        0          0          0         
MW-50-3          98.5       2.5        0          0          0         
MW-50-4          98.0       3.0        0          0          0         
MW-50-5          97.5       3.5        0          0          0         
MW-50-6          97.0       4.0        0          0          0         
MW-50-7          96.5       4.5        0          0          0         
MW-50-8          96.0       5.0        0          0          0         
MW-50-9          95.5       5.5        0          0          0         
MW-50-10         95.0       6.0        0          0          0         
MW-50-11         94.5       6.5        0          0          0         
MW-50-12         94.0       7.0        0          0          0         
MW-50-13         93.5       7.5        0          0          0         
MW-50-14         93.0       8.0        0          0          0         
MW-50-15         92.5       8.5        0          0          0         
MW-50-16         92.0       9.0        0          0          0         
MW-50-17         91.5       9.5        0          0          0         
MW-50-18         91.0       10.0       0          0          0         
MW-50-19         90.5       10.5       0          0          0         
MW-50-20         90.0       11.0       0          0          0         
MW-100-A         100.05     1.0499954  0          0          0         
MW-100-0         100.0      1.0        0          0          0         
MW-100-1         99.0       2.0        0          0          0         
MW-100-2         98.0       3.0        0          0          0         
MW-100-3         97.0       4.0        0          0          0         
MW-100-4         96.0       5.0        0          0          0         
MW-100-5         95.0       6.0        0          0          0         
MW-100-6         94.0       7.0        0          0          0         
MW-100-7         93.0       8.0        0          0          0         
MW-100-8         92.0       9.0        0          0          0         
MW-100-9         91.0       10.0       0          0          0         
MW-100-10        90.0       11.0       0          0          0         
MW-200-A         100.05     1.0499954  0          0          0         
MW-200-0         100.0      1.0        0          0          0         
MW-200-1         98.0       3.0        0          0          0         
MW-200-2         96.0       5.0        0          0          0         
MW-200-3         94.0       7.0        0          0          0         
MW-200-4         92.0       9.0        0          0          0         
MW-200-5         90.0       11.0       0          0          0         
MW-500-A         100.05     1.0499954  0          0          0         